Circuit: *load regulation

u3:v7: Missing value, assumed 0V @ DC
Per .tran options, skipping operating point for transient analysis.
.step iload=0.075
Changing Tseed to 9.76562e-009
Changing Tseed to 9.76563e-011
Heightened Def Con from 4.17346e-006 +++++++++++++++++++++++++++to 4.17946e-006
.step iload=0.175

Date: Sun Oct 17 21:22:02 2021
Total elapsed time: 404.210 seconds.

tnom = 27
temp = 27
method = modified trap
totiter = 12441772
traniter = 12441772
tranpoints = 5130604
accept = 3684883
rejected = 1445747
matrix size = 75
fillins = 33
solver = Normal
Thread vector: 9.6/6.1[2] 3.5/3.3[1] 2.4/2.4[1] 0.9/1.7[1]  2592/500
Matrix Compiler1: 5.39 KB object code size  2.4/1.2/[1.1]
Matrix Compiler2: 6.42 KB object code size  1.1/1.4/[1.0]

