Circuit: *transient response

u3:v7: Missing value, assumed 0V @ DC
Per .tran options, skipping operating point for transient analysis.
Changing Tseed to 9.76562e-009
Changing Tseed to 9.76563e-011
Heightened Def Con from 4.1736e-006 +++++++++++++++++++++++++++to 4.1796e-006

Date: Sun Oct 17 20:33:26 2021
Total elapsed time: 157.012 seconds.

tnom = 27
temp = 27
method = modified trap
totiter = 12417950
traniter = 12417950
tranpoints = 5124757
accept = 3681305
rejected = 1443478
matrix size = 75
fillins = 33
solver = Normal
Thread vector: 14.1/11.0[2] 6.9/5.3[2] 4.1/4.0[1] 1.1/16.0[1]  2592/500
Matrix Compiler1: 5.39 KB object code size  3.8/2.3/[1.3]
Matrix Compiler2: 6.42 KB object code size  2.0/2.8/[1.1]

